6b73-processed_2
  MOE2020           3D

 54 58  0  0  1  0  0  0  0  0999 V2000
   59.7490  -21.5370   -6.6830 O   0  0  0  0  0  0  0  0  0  0  0  0
   61.1890  -18.9920   -6.3210 O   0  0  0  0  0  0  0  0  0  0  0  0
   59.1550  -20.1580   -9.7470 O   0  0  0  0  0  0  0  0  0  0  0  0
   60.2580  -26.0780   -5.5400 O   0  0  0  0  0  0  0  0  0  0  0  0
   61.0050  -19.8420   -8.4430 O   0  5  0  0  0  0  0  0  0  0  0  0
   60.3690  -25.0350   -3.0160 N   0  3  3  0  0  0  0  0  0  0  0  0
   60.4370  -22.9800   -9.3240 N   0  3  0  0  0  0  0  0  0  0  0  0
   60.6890  -21.2570   -5.7190 C   0  0  0  0  0  0  0  0  0  0  0  0
   61.3320  -20.0660   -5.4850 C   0  0  0  0  0  0  0  0  0  0  0  0
   61.0420  -22.3930   -5.0210 C   0  0  0  0  0  0  0  0  0  0  0  0
   62.0440  -22.4080   -4.0740 C   0  0  0  0  0  0  0  0  0  0  0  0
   62.2640  -20.0120   -4.4450 C   0  0  0  0  0  0  0  0  0  0  0  0
   62.6250  -21.1810   -3.7420 C   0  0  0  0  0  0  0  0  0  0  0  0
   60.3110  -20.4220   -9.3310 C   0  0  0  0  0  0  0  0  0  0  0  0
   61.0160  -24.8650   -5.4280 C   0  0  3  0  0  0  0  0  0  0  0  0
   59.8790  -22.9860   -6.8600 C   0  0  3  0  0  0  0  0  0  0  0  0
   59.3430  -26.3110   -6.5950 C   0  0  0  0  0  0  0  0  0  0  0  0
   61.5880  -24.9330   -3.9580 C   0  0  3  0  0  0  0  0  0  0  0  0
   60.9810  -23.1850   -7.9260 C   0  0  3  0  0  0  0  0  0  0  0  0
   59.4170  -23.8670   -3.0540 C   0  0  0  0  0  0  0  0  0  0  0  0
   60.9180  -21.6890   -9.9500 C   0  0  0  0  0  0  0  0  0  0  0  0
   60.7360  -25.4400   -1.6120 C   0  0  0  0  0  0  0  0  0  0  0  0
   60.2080  -23.5530   -5.4680 C   0  0  3  0  0  0  0  0  0  0  0  0
   62.5100  -23.7380   -3.5540 C   0  0  0  0  0  0  0  0  0  0  0  0
   62.1210  -24.9320   -6.4910 C   0  0  0  0  0  0  0  0  0  0  0  0
   61.6580  -24.5300   -7.8900 C   0  0  0  0  0  0  0  0  0  0  0  0
   58.9990  -23.5830   -4.5010 C   0  0  0  0  0  0  0  0  0  0  0  0
   61.0480  -19.3770   -7.2660 H   0  0  0  0  0  0  0  0  0  0  0  0
   59.7650  -25.8370   -3.4060 H   0  0  0  0  0  0  0  0  0  0  0  0
   59.4050  -22.9420   -9.3440 H   0  0  0  0  0  0  0  0  0  0  0  0
   60.7030  -23.7500   -9.9530 H   0  0  0  0  0  0  0  0  0  0  0  0
   62.7900  -19.0820   -4.2410 H   0  0  0  0  0  0  0  0  0  0  0  0
   63.4140  -21.1280   -2.9940 H   0  0  0  0  0  0  0  0  0  0  0  0
   58.9180  -23.3650   -7.2220 H   0  0  0  0  0  0  0  0  0  0  0  0
   59.8620  -26.6420   -7.4950 H   0  0  0  0  0  0  0  0  0  0  0  0
   58.6990  -25.4570   -6.8000 H   0  0  0  0  0  0  0  0  0  0  0  0
   58.7000  -27.1450   -6.3020 H   0  0  0  0  0  0  0  0  0  0  0  0
   62.1240  -25.8800   -3.8090 H   0  0  0  0  0  0  0  0  0  0  0  0
   61.7690  -22.4340   -7.8000 H   0  0  0  0  0  0  0  0  0  0  0  0
   59.9060  -23.0150   -2.5740 H   0  0  0  0  0  0  0  0  0  0  0  0
   58.5390  -24.1160   -2.4510 H   0  0  0  0  0  0  0  0  0  0  0  0
   62.0130  -21.6870   -9.9060 H   0  0  0  0  0  0  0  0  0  0  0  0
   60.6280  -21.7530  -11.0050 H   0  0  0  0  0  0  0  0  0  0  0  0
   61.0140  -26.4960   -1.6330 H   0  0  0  0  0  0  0  0  0  0  0  0
   59.8970  -25.2510   -0.9400 H   0  0  0  0  0  0  0  0  0  0  0  0
   61.5780  -24.8420   -1.2620 H   0  0  0  0  0  0  0  0  0  0  0  0
   62.6560  -23.6670   -2.4740 H   0  0  0  0  0  0  0  0  0  0  0  0
   63.5020  -23.9230   -3.9850 H   0  0  0  0  0  0  0  0  0  0  0  0
   62.5080  -25.9540   -6.5470 H   0  0  0  0  0  0  0  0  0  0  0  0
   62.9640  -24.3030   -6.2130 H   0  0  0  0  0  0  0  0  0  0  0  0
   62.5230  -24.4380   -8.5420 H   0  0  0  0  0  0  0  0  0  0  0  0
   61.0380  -25.3000   -8.3480 H   0  0  0  0  0  0  0  0  0  0  0  0
   58.2700  -24.3310   -4.8300 H   0  0  0  0  0  0  0  0  0  0  0  0
   58.4560  -22.6320   -4.5060 H   0  0  0  0  0  0  0  0  0  0  0  0
  1  8  1  0  0  0  0
  1 16  1  0  0  0  0
  2  9  1  0  0  0  0
  2 28  1  0  0  0  0
  3 14  2  0  0  0  0
  4 15  1  0  0  0  0
  4 17  1  0  0  0  0
  5 14  1  0  0  0  0
  6 18  1  0  0  0  0
  6 20  1  0  0  0  0
  6 22  1  0  0  0  0
  6 29  1  0  0  0  0
  7 19  1  0  0  0  0
  7 21  1  0  0  0  0
  7 30  1  0  0  0  0
  7 31  1  0  0  0  0
  8  9  1  0  0  0  0
  8 10  2  0  0  0  0
  9 12  2  0  0  0  0
 10 11  1  0  0  0  0
 10 23  1  0  0  0  0
 11 13  2  0  0  0  0
 11 24  1  0  0  0  0
 12 13  1  0  0  0  0
 12 32  1  0  0  0  0
 13 33  1  0  0  0  0
 14 21  1  0  0  0  0
 15 18  1  0  0  0  0
 15 23  1  0  0  0  0
 15 25  1  0  0  0  0
 16 19  1  0  0  0  0
 16 23  1  0  0  0  0
 16 34  1  0  0  0  0
 17 35  1  0  0  0  0
 17 36  1  0  0  0  0
 17 37  1  0  0  0  0
 18 24  1  0  0  0  0
 18 38  1  0  0  0  0
 19 26  1  0  0  0  0
 19 39  1  0  0  0  0
 20 27  1  0  0  0  0
 20 40  1  0  0  0  0
 20 41  1  0  0  0  0
 21 42  1  0  0  0  0
 21 43  1  0  0  0  0
 22 44  1  0  0  0  0
 22 45  1  0  0  0  0
 22 46  1  0  0  0  0
 23 27  1  0  0  0  0
 24 47  1  0  0  0  0
 24 48  1  0  0  0  0
 25 26  1  0  0  0  0
 25 49  1  0  0  0  0
 25 50  1  0  0  0  0
 26 51  1  0  0  0  0
 26 52  1  0  0  0  0
 27 53  1  0  0  0  0
 27 54  1  0  0  0  0
M  CHG  1   5  -1
M  CHG  1   6   1
M  CHG  1   7   1
M  END
$$$$
